/*--------------------------------*- C++ -*----------------------------------*\
| =========                 |                                                 |
| \\      /  F ield         | OpenFOAM Extend Project: Open Source CFD        |
|  \\    /   O peration     | Version:  1.6-ext                               |
|   \\  /    A nd           | Web:      www.extend-project.de                 |
|    \\/     M anipulation  |                                                 |
\*---------------------------------------------------------------------------*/
FoamFile
{
    version     2.0;
    format      ascii;
    class       dictionary;
    object      RASProperties;
}
// * * * * * * * * * * * * * * * * * * * * * * * * * * * * * * * * * * * * * //

RASModel            v2ftpFinal;

turbulence          on;

printCoeffs         on;

v2ftpFinalCoeffs{

   solveK              true;
   solveEps            true;
   solvePsi            true;
   solvePhi            true;
   solveNut            true;

   eqnSigmaK           false;
   eqnSigmaEps         false;
   eqnSigmaPhi         false;
   eqnSigmaPsi         false;

   sigmaK			   1.1; 
   sigmaEps 		   0.83; 
   sigmaPhi       	   0.5;
   sigmaPsi       	   1.1;
   
   prodType            1.0;
   pMix  	           0.5;
   cPr                 1.0;
   cPw                 0.0;
   cPrK				   0.2;
   cPrP				   1.0;
   
   transType           6.0;
   cT                  0.0;
   cA                  0.0;
   
   eqncEp1             true;
   eqncEp2             false;
   eqnEpsHat           mod;
   cEp1                1.44;
   cEp2con			   1.83;
   cEp3                0.15;
   cEp4                0.0;
   cEhmP               0.79;
   cEhmM			   10.0;
   cEhmPK			   0.12;
   cEhmPK2			   0.67;

   
   nutType             5.0;
   eqncMu 	           false;
   cMu                 0.22;
   betaK			   0.09;
   nutRatMax 		   1e5;
   cN1                 0.5;
   cN2                 0.42;
   cND1                1.0;
   cND2				   1.0;
   
   cL1	               0.35; 
   cL2                 85.0; 
   tslimiter           true;
   lslimiter           true;   
 
   cD1                 0.03; 
   cD2                 1.0;

   psExtraType         1.0;
   cp1Type             7.0;
   cP1                 1.5; 
   cP2                 0.42;
   cP3                 0.15; 
   cP4                 0.009;
   cP5                 0.0;

   cG                  0.05; 
   cGw                 1.0;
   cNF                 0.0;
   cNL                 1e-6;


   debugWrite          true;
}


boundaryCoeffs{
   tslimiter    true;
   nutRatMax     1e5;
   cMu		0.22;
   betaK	0.09;
}

// ************************************************************************* //

